10107774_CHEMBL2380981
     RDKit          2D

 44 46  0  0  0  0  0  0  0  0999 V2000
    2.0620    5.9783    0.0000 C   0  0  0  0  0  0  0  0  0  0  0  0
    0.7629    6.7283    0.0000 N   0  0  0  0  0  0  0  0  0  0  0  0
    0.7629    8.2283    0.0000 C   0  0  0  0  0  0  0  0  0  0  0  0
   -0.5361    5.9783    0.0000 C   0  0  0  0  0  0  0  0  0  0  0  0
   -1.8351    5.2283    0.0000 C   0  0  0  0  0  0  0  0  0  0  0  0
   -2.4452    6.5986    0.0000 C   0  0  0  0  0  0  0  0  0  0  0  0
   -3.9370    6.4418    0.0000 C   0  0  0  0  0  0  0  0  0  0  0  0
   -4.2489    4.9746    0.0000 C   0  0  0  0  0  0  0  0  0  0  0  0
   -2.9499    4.2246    0.0000 C   0  0  0  0  0  0  0  0  0  0  0  0
   -1.8351    3.2209    0.0000 C   0  0  0  0  0  0  0  0  0  0  0  0
   -0.4086    3.6844    0.0000 C   0  0  0  0  0  0  0  0  0  0  0  0
    0.7062    2.6807    0.0000 C   0  0  0  0  0  0  0  0  0  0  0  0
   -2.1470    1.7537    0.0000 C   0  0  0  0  0  0  0  0  0  0  0  0
   -1.0323    0.7500    0.0000 C   0  0  0  0  0  0  0  0  0  0  0  0
    0.3943    1.2135    0.0000 C   0  0  0  0  0  0  0  0  0  0  0  0
    1.2760    0.0000    0.0000 N   0  0  0  0  0  0  0  0  0  0  0  0
    2.7760   -0.0000    0.0000 C   0  0  0  0  0  0  0  0  0  0  0  0
    0.3943   -1.2135    0.0000 C   0  0  0  0  0  0  0  0  0  0  0  0
   -1.0323   -0.7500    0.0000 C   0  0  0  0  0  0  0  0  0  0  0  0
   -2.2458   -1.6317    0.0000 C   0  0  0  0  0  0  0  0  0  0  0  0
   -3.4593   -2.5134    0.0000 N   0  0  0  0  0  0  0  0  0  0  0  0
    3.3610    5.2283    0.0000 H   0  0  0  0  0  0  0  0  0  0  0  0
    2.8120    7.2773    0.0000 H   0  0  0  0  0  0  0  0  0  0  0  0
    1.3120    4.6793    0.0000 H   0  0  0  0  0  0  0  0  0  0  0  0
    0.7629    9.7283    0.0000 H   0  0  0  0  0  0  0  0  0  0  0  0
    2.2629    8.2283    0.0000 H   0  0  0  0  0  0  0  0  0  0  0  0
   -0.7371    8.2283    0.0000 H   0  0  0  0  0  0  0  0  0  0  0  0
   -0.8476    6.7121    0.0000 H   0  0  0  0  0  0  0  0  0  0  0  0
    0.3667    4.7804    0.0000 H   0  0  0  0  0  0  0  0  0  0  0  0
   -0.9044    4.4474    0.0000 H   0  0  0  0  0  0  0  0  0  0  0  0
   -2.7571    8.0658    0.0000 H   0  0  0  0  0  0  0  0  0  0  0  0
   -1.7228    6.9355    0.0000 H   0  0  0  0  0  0  0  0  0  0  0  0
   -5.4288    6.5986    0.0000 H   0  0  0  0  0  0  0  0  0  0  0  0
   -3.9370    7.9418    0.0000 H   0  0  0  0  0  0  0  0  0  0  0  0
   -4.8590    3.6043    0.0000 H   0  0  0  0  0  0  0  0  0  0  0  0
   -5.6755    5.4381    0.0000 H   0  0  0  0  0  0  0  0  0  0  0  0
   -3.8315    3.0111    0.0000 H   0  0  0  0  0  0  0  0  0  0  0  0
    0.0798    5.1027    0.0000 H   0  0  0  0  0  0  0  0  0  0  0  0
    2.1328    3.1443    0.0000 H   0  0  0  0  0  0  0  0  0  0  0  0
   -3.5736    1.2902    0.0000 H   0  0  0  0  0  0  0  0  0  0  0  0
    4.2760    0.0000    0.0000 H   0  0  0  0  0  0  0  0  0  0  0  0
    2.7760   -1.5000    0.0000 H   0  0  0  0  0  0  0  0  0  0  0  0
    2.7760    1.5000    0.0000 H   0  0  0  0  0  0  0  0  0  0  0  0
    0.8578   -2.6401    0.0000 H   0  0  0  0  0  0  0  0  0  0  0  0
  1  2  1  0
  2  3  1  0
  2  4  1  0
  4  5  1  0
  5  6  1  0
  6  7  1  0
  7  8  1  0
  5  9  1  0
  9 10  1  0
 10 11  2  0
 11 12  1  0
 10 13  1  0
 13 14  2  0
 14 15  1  0
 15 16  1  0
 16 17  1  0
 16 18  1  0
 18 19  2  0
 19 20  1  0
 20 21  3  0
  9  8  1  0
 15 12  2  0
 19 14  1  0
  1 22  1  0
  1 23  1  0
  1 24  1  0
  3 25  1  0
  3 26  1  0
  3 27  1  0
  4 28  1  0
  4 29  1  0
  5 30  1  0
  6 31  1  0
  6 32  1  0
  7 33  1  0
  7 34  1  0
  8 35  1  0
  8 36  1  0
  9 37  1  0
 11 38  1  0
 12 39  1  0
 13 40  1  0
 17 41  1  0
 17 42  1  0
 17 43  1  0
 18 44  1  0
M  END
$$$$
