46230756_CHEMBL598560
     RDKit          2D

 37 39  0  0  0  0  0  0  0  0999 V2000
    3.0000    5.1962    0.0000 F   0  0  0  0  0  0  0  0  0  0  0  0
    1.5000    5.1962    0.0000 C   0  0  0  0  0  0  0  0  0  0  0  0
    0.7500    6.4952    0.0000 C   0  0  0  0  0  0  0  0  0  0  0  0
   -0.7500    6.4952    0.0000 C   0  0  0  0  0  0  0  0  0  0  0  0
    0.7500    3.8971    0.0000 C   0  0  0  0  0  0  0  0  0  0  0  0
   -0.7500    3.8971    0.0000 C   0  0  0  0  0  0  0  0  0  0  0  0
   -1.5000    2.5981    0.0000 O   0  0  0  0  0  0  0  0  0  0  0  0
   -3.0000    2.5981    0.0000 C   0  0  0  0  0  0  0  0  0  0  0  0
   -3.7500    3.8971    0.0000 N   0  0  0  0  0  0  0  0  0  0  0  0
   -5.2500    3.8971    0.0000 C   0  0  0  0  0  0  0  0  0  0  0  0
   -6.0000    2.5981    0.0000 C   0  0  0  0  0  0  0  0  0  0  0  0
   -5.2500    1.2990    0.0000 C   0  0  0  0  0  0  0  0  0  0  0  0
   -3.7500    1.2990    0.0000 C   0  0  0  0  0  0  0  0  0  0  0  0
   -3.0000    0.0000    0.0000 C   0  0  0  0  0  0  0  0  0  0  0  0
   -4.4095   -0.5130    0.0000 C   0  0  0  0  0  0  0  0  0  0  0  0
   -4.6700   -1.9902    0.0000 C   0  0  0  0  0  0  0  0  0  0  0  0
   -3.5209   -2.9544    0.0000 N   0  0  0  0  0  0  0  0  0  0  0  0
   -2.1114   -2.4414    0.0000 C   0  0  0  0  0  0  0  0  0  0  0  0
   -1.8509   -0.9642    0.0000 C   0  0  0  0  0  0  0  0  0  0  0  0
   -1.5000    5.1962    0.0000 C   0  0  0  0  0  0  0  0  0  0  0  0
   -3.0000    5.1962    0.0000 Cl  0  0  0  0  0  0  0  0  0  0  0  0
    1.5000    7.7942    0.0000 H   0  0  0  0  0  0  0  0  0  0  0  0
   -1.5000    7.7942    0.0000 H   0  0  0  0  0  0  0  0  0  0  0  0
    1.5000    2.5981    0.0000 H   0  0  0  0  0  0  0  0  0  0  0  0
   -6.0000    5.1962    0.0000 H   0  0  0  0  0  0  0  0  0  0  0  0
   -7.5000    2.5981    0.0000 H   0  0  0  0  0  0  0  0  0  0  0  0
   -6.0625    0.2209    0.0000 H   0  0  0  0  0  0  0  0  0  0  0  0
   -1.8509    0.9642    0.0000 H   0  0  0  0  0  0  0  0  0  0  0  0
   -5.6155   -0.6611    0.0000 H   0  0  0  0  0  0  0  0  0  0  0  0
   -4.8544    0.4859    0.0000 H   0  0  0  0  0  0  0  0  0  0  0  0
   -5.4200   -3.2893    0.0000 H   0  0  0  0  0  0  0  0  0  0  0  0
   -5.9386   -1.5285    0.0000 H   0  0  0  0  0  0  0  0  0  0  0  0
   -3.7814   -4.4316    0.0000 H   0  0  0  0  0  0  0  0  0  0  0  0
   -0.6114   -2.4414    0.0000 H   0  0  0  0  0  0  0  0  0  0  0  0
   -1.8509   -3.9186    0.0000 H   0  0  0  0  0  0  0  0  0  0  0  0
   -1.1009    0.3349    0.0000 H   0  0  0  0  0  0  0  0  0  0  0  0
   -0.4414   -1.4772    0.0000 H   0  0  0  0  0  0  0  0  0  0  0  0
  1  2  1  0
  2  3  2  0
  3  4  1  0
  2  5  1  0
  5  6  2  0
  6  7  1  0
  7  8  1  0
  8  9  2  0
  9 10  1  0
 10 11  2  0
 11 12  1  0
 12 13  2  0
 13 14  1  0
 14 15  1  0
 15 16  1  0
 16 17  1  0
 17 18  1  0
 18 19  1  0
  6 20  1  0
 20 21  1  0
 20  4  2  0
 13  8  1  0
 19 14  1  0
  3 22  1  0
  4 23  1  0
  5 24  1  0
 10 25  1  0
 11 26  1  0
 12 27  1  0
 14 28  1  0
 15 29  1  0
 15 30  1  0
 16 31  1  0
 16 32  1  0
 17 33  1  0
 18 34  1  0
 18 35  1  0
 19 36  1  0
 19 37  1  0
M  END
$$$$
