CHEMBL1224094
     RDKit          2D

 47 49  0  0  0  0  0  0  0  0999 V2000
    2.1053    5.7278    0.0000 C   0  0  0  0  0  0  0  0  0  0  0  0
    1.6418    4.3013    0.0000 C   0  0  0  0  0  0  0  0  0  0  0  0
    1.1782    2.8747    0.0000 C   0  0  0  0  0  0  0  0  0  0  0  0
    3.0684    3.8377    0.0000 C   0  0  0  0  0  0  0  0  0  0  0  0
    0.2152    4.7648    0.0000 C   0  0  0  0  0  0  0  0  0  0  0  0
   -1.2114    5.2283    0.0000 C   0  0  0  0  0  0  0  0  0  0  0  0
   -2.6380    5.6918    0.0000 C   0  0  0  0  0  0  0  0  0  0  0  0
   -2.9499    4.2246    0.0000 C   0  0  0  0  0  0  0  0  0  0  0  0
   -4.3764    3.7611    0.0000 C   0  0  0  0  0  0  0  0  0  0  0  0
   -5.4912    4.7648    0.0000 C   0  0  0  0  0  0  0  0  0  0  0  0
   -6.9177    4.3013    0.0000 C   0  0  0  0  0  0  0  0  0  0  0  0
   -4.6883    2.2939    0.0000 C   0  0  0  0  0  0  0  0  0  0  0  0
   -6.1149    1.8303    0.0000 C   0  0  0  0  0  0  0  0  0  0  0  0
   -7.2296    2.8340    0.0000 C   0  0  0  0  0  0  0  0  0  0  0  0
   -8.5286    2.0840    0.0000 N   0  0  0  0  0  0  0  0  0  0  0  0
   -8.2168    0.6168    0.0000 N   0  0  0  0  0  0  0  0  0  0  0  0
   -6.7250    0.4600    0.0000 C   0  0  0  0  0  0  0  0  0  0  0  0
   -1.9658    3.0925    0.0000 O   0  0  0  0  0  0  0  0  0  0  0  0
   -2.0279    7.0622    0.0000 N   0  0  0  0  0  0  0  0  0  0  0  0
   -3.1426    8.0658    0.0000 C   0  0  0  0  0  0  0  0  0  0  0  0
   -4.4416    7.3158    0.0000 C   0  0  0  0  0  0  0  0  0  0  0  0
   -4.1298    5.8486    0.0000 C   0  0  0  0  0  0  0  0  0  0  0  0
    2.5688    7.1544    0.0000 H   0  0  0  0  0  0  0  0  0  0  0  0
    2.9748    5.5589    0.0000 H   0  0  0  0  0  0  0  0  0  0  0  0
    0.7458    6.3618    0.0000 H   0  0  0  0  0  0  0  0  0  0  0  0
    0.7147    1.4481    0.0000 H   0  0  0  0  0  0  0  0  0  0  0  0
    1.9810    2.5003    0.0000 H   0  0  0  0  0  0  0  0  0  0  0  0
    0.3088    3.0437    0.0000 H   0  0  0  0  0  0  0  0  0  0  0  0
    4.4949    3.3742    0.0000 H   0  0  0  0  0  0  0  0  0  0  0  0
    3.4427    4.6405    0.0000 H   0  0  0  0  0  0  0  0  0  0  0  0
    2.8994    2.9683    0.0000 H   0  0  0  0  0  0  0  0  0  0  0  0
   -0.1592    3.9620    0.0000 H   0  0  0  0  0  0  0  0  0  0  0  0
    0.5014    6.2372    0.0000 H   0  0  0  0  0  0  0  0  0  0  0  0
   -1.4976    3.7559    0.0000 H   0  0  0  0  0  0  0  0  0  0  0  0
   -0.5774    6.5878    0.0000 H   0  0  0  0  0  0  0  0  0  0  0  0
   -5.3605    6.2591    0.0000 H   0  0  0  0  0  0  0  0  0  0  0  0
   -8.0325    5.3050    0.0000 H   0  0  0  0  0  0  0  0  0  0  0  0
   -3.5736    1.2902    0.0000 H   0  0  0  0  0  0  0  0  0  0  0  0
   -9.8990    2.6941    0.0000 H   0  0  0  0  0  0  0  0  0  0  0  0
   -5.9750   -0.8390    0.0000 H   0  0  0  0  0  0  0  0  0  0  0  0
   -0.6096    7.5505    0.0000 H   0  0  0  0  0  0  0  0  0  0  0  0
   -2.0279    9.0695    0.0000 H   0  0  0  0  0  0  0  0  0  0  0  0
   -4.0243    9.2794    0.0000 H   0  0  0  0  0  0  0  0  0  0  0  0
   -5.0517    8.6862    0.0000 H   0  0  0  0  0  0  0  0  0  0  0  0
   -5.8682    6.8523    0.0000 H   0  0  0  0  0  0  0  0  0  0  0  0
   -5.6295    5.8748    0.0000 H   0  0  0  0  0  0  0  0  0  0  0  0
   -4.4927    4.3932    0.0000 H   0  0  0  0  0  0  0  0  0  0  0  0
  1  2  1  0
  2  3  1  0
  2  4  1  0
  2  5  1  0
  5  6  1  0
  6  7  1  0
  7  8  1  0
  8  9  1  0
  9 10  2  0
 10 11  1  0
  9 12  1  0
 12 13  2  0
 13 14  1  0
 14 15  1  0
 15 16  1  0
 16 17  2  0
  8 18  2  0
  7 19  1  0
 19 20  1  0
 20 21  1  0
 21 22  1  0
 22  7  1  0
 14 11  2  0
 17 13  1  0
  1 23  1  0
  1 24  1  0
  1 25  1  0
  3 26  1  0
  3 27  1  0
  3 28  1  0
  4 29  1  0
  4 30  1  0
  4 31  1  0
  5 32  1  0
  5 33  1  0
  6 34  1  0
  6 35  1  0
 10 36  1  0
 11 37  1  0
 12 38  1  0
 15 39  1  0
 17 40  1  0
 19 41  1  0
 20 42  1  0
 20 43  1  0
 21 44  1  0
 21 45  1  0
 22 46  1  0
 22 47  1  0
M  END
$$$$
