CHEMBL1199321
     RDKit          2D

 34 36  0  0  0  0  0  0  0  0999 V2000
   -2.9499    4.2246    0.0000 Cl  0  0  0  0  0  0  0  0  0  0  0  0
   -1.8351    3.2209    0.0000 C   0  0  0  0  0  0  0  0  0  0  0  0
   -0.4086    3.6844    0.0000 C   0  0  0  0  0  0  0  0  0  0  0  0
    0.7062    2.6807    0.0000 C   0  0  0  0  0  0  0  0  0  0  0  0
   -2.1470    1.7537    0.0000 C   0  0  0  0  0  0  0  0  0  0  0  0
   -1.0323    0.7500    0.0000 C   0  0  0  0  0  0  0  0  0  0  0  0
    0.3943    1.2135    0.0000 C   0  0  0  0  0  0  0  0  0  0  0  0
    1.2760    0.0000    0.0000 N   0  0  0  0  0  0  0  0  0  0  0  0
    0.3943   -1.2135    0.0000 C   0  0  0  0  0  0  0  0  0  0  0  0
   -1.0323   -0.7500    0.0000 C   0  0  0  0  0  0  0  0  0  0  0  0
   -2.2458   -1.6317    0.0000 C   0  0  0  0  0  0  0  0  0  0  0  0
   -3.4593   -2.5134    0.0000 C   0  0  0  0  0  0  0  0  0  0  0  0
   -2.3803   -3.5553    0.0000 C   0  0  0  0  0  0  0  0  0  0  0  0
   -2.7432   -5.0108    0.0000 C   0  0  0  0  0  0  0  0  0  0  0  0
   -4.1851   -5.4242    0.0000 N   0  0  0  0  0  0  0  0  0  0  0  0
   -5.2641   -4.3823    0.0000 C   0  0  0  0  0  0  0  0  0  0  0  0
   -4.9012   -2.9268    0.0000 C   0  0  0  0  0  0  0  0  0  0  0  0
   -0.0967    5.1517    0.0000 H   0  0  0  0  0  0  0  0  0  0  0  0
    2.1328    3.1443    0.0000 H   0  0  0  0  0  0  0  0  0  0  0  0
   -3.5736    1.2902    0.0000 H   0  0  0  0  0  0  0  0  0  0  0  0
    2.7760    0.0000    0.0000 H   0  0  0  0  0  0  0  0  0  0  0  0
    0.8578   -2.6401    0.0000 H   0  0  0  0  0  0  0  0  0  0  0  0
   -1.7021   -2.2147    0.0000 H   0  0  0  0  0  0  0  0  0  0  0  0
   -3.1275   -0.4182    0.0000 H   0  0  0  0  0  0  0  0  0  0  0  0
   -4.1169   -1.1652    0.0000 H   0  0  0  0  0  0  0  0  0  0  0  0
   -1.0100   -4.1654    0.0000 H   0  0  0  0  0  0  0  0  0  0  0  0
   -1.8573   -2.9537    0.0000 H   0  0  0  0  0  0  0  0  0  0  0  0
   -2.5864   -6.5026    0.0000 H   0  0  0  0  0  0  0  0  0  0  0  0
   -1.2469   -5.1154    0.0000 H   0  0  0  0  0  0  0  0  0  0  0  0
   -4.5480   -6.8797    0.0000 H   0  0  0  0  0  0  0  0  0  0  0  0
   -6.6344   -3.7722    0.0000 H   0  0  0  0  0  0  0  0  0  0  0  0
   -6.1029   -5.6258    0.0000 H   0  0  0  0  0  0  0  0  0  0  0  0
   -5.0580   -1.4350    0.0000 H   0  0  0  0  0  0  0  0  0  0  0  0
   -6.3976   -2.8222    0.0000 H   0  0  0  0  0  0  0  0  0  0  0  0
  1  2  1  0
  2  3  2  0
  3  4  1  0
  2  5  1  0
  5  6  2  0
  6  7  1  0
  7  8  1  0
  8  9  1  0
  9 10  2  0
 10 11  1  0
 11 12  1  0
 12 13  1  0
 13 14  1  0
 14 15  1  0
 15 16  1  0
 16 17  1  0
  7  4  2  0
 17 12  1  0
 10  6  1  0
  3 18  1  0
  4 19  1  0
  5 20  1  0
  8 21  1  0
  9 22  1  0
 11 23  1  0
 11 24  1  0
 12 25  1  0
 13 26  1  0
 13 27  1  0
 14 28  1  0
 14 29  1  0
 15 30  1  0
 16 31  1  0
 16 32  1  0
 17 33  1  0
 17 34  1  0
M  END
$$$$
