CHEMBL363124
     RDKit          2D

 50 54  0  0  0  0  0  0  0  0999 V2000
    4.5000   -7.7942    0.0000 C   0  0  0  0  0  0  0  0  0  0  0  0
    3.7500   -6.4952    0.0000 C   0  0  0  0  0  0  0  0  0  0  0  0
    3.0000   -5.1962    0.0000 N   0  0  0  0  0  0  0  0  0  0  0  0
    3.7500   -3.8971    0.0000 C   0  0  0  0  0  0  0  0  0  0  0  0
    3.0000   -2.5981    0.0000 C   0  0  0  0  0  0  0  0  0  0  0  0
    1.5000   -5.1962    0.0000 C   0  0  0  0  0  0  0  0  0  0  0  0
    0.7500   -3.8971    0.0000 C   0  0  0  0  0  0  0  0  0  0  0  0
    1.5000   -2.5981    0.0000 N   0  0  0  0  0  0  0  0  0  0  0  0
    0.7500   -1.2990    0.0000 C   0  0  0  0  0  0  0  0  0  0  0  0
    1.5000    0.0000    0.0000 C   0  0  0  0  0  0  0  0  0  0  0  0
    0.7500    1.2990    0.0000 C   0  0  0  0  0  0  0  0  0  0  0  0
   -0.7500    1.2990    0.0000 C   0  0  0  0  0  0  0  0  0  0  0  0
   -1.5000    0.0000    0.0000 C   0  0  0  0  0  0  0  0  0  0  0  0
   -3.0000    0.0000    0.0000 C   0  0  0  0  0  0  0  0  0  0  0  0
   -3.7500   -1.2990    0.0000 C   0  0  0  0  0  0  0  0  0  0  0  0
   -3.0000   -2.5981    0.0000 C   0  0  0  0  0  0  0  0  0  0  0  0
   -1.5000   -2.5981    0.0000 C   0  0  0  0  0  0  0  0  0  0  0  0
   -0.7500   -1.2990    0.0000 C   0  0  0  0  0  0  0  0  0  0  0  0
    5.2500   -9.0933    0.0000 C   0  0  0  0  0  0  0  0  0  0  0  0
    4.5000  -10.3923    0.0000 C   0  0  0  0  0  0  0  0  0  0  0  0
    5.2500  -11.6913    0.0000 C   0  0  0  0  0  0  0  0  0  0  0  0
    6.7500   -9.0933    0.0000 C   0  0  0  0  0  0  0  0  0  0  0  0
    7.5000  -10.3923    0.0000 C   0  0  0  0  0  0  0  0  0  0  0  0
    6.7500  -11.6913    0.0000 C   0  0  0  0  0  0  0  0  0  0  0  0
    7.7537  -12.8061    0.0000 N   0  0  0  0  0  0  0  0  0  0  0  0
    9.1240  -12.1960    0.0000 N   0  0  0  0  0  0  0  0  0  0  0  0
    8.9672  -10.7042    0.0000 N   0  0  0  0  0  0  0  0  0  0  0  0
    5.7990   -7.0442    0.0000 H   0  0  0  0  0  0  0  0  0  0  0  0
    3.2010   -8.5442    0.0000 H   0  0  0  0  0  0  0  0  0  0  0  0
    2.5521   -7.3979    0.0000 H   0  0  0  0  0  0  0  0  0  0  0  0
    5.1308   -5.9091    0.0000 H   0  0  0  0  0  0  0  0  0  0  0  0
    4.8991   -2.9329    0.0000 H   0  0  0  0  0  0  0  0  0  0  0  0
    5.0080   -4.7140    0.0000 H   0  0  0  0  0  0  0  0  0  0  0  0
    2.7395   -1.1209    0.0000 H   0  0  0  0  0  0  0  0  0  0  0  0
    4.4095   -2.0850    0.0000 H   0  0  0  0  0  0  0  0  0  0  0  0
    1.5785   -6.6941    0.0000 H   0  0  0  0  0  0  0  0  0  0  0  0
    0.0905   -5.7092    0.0000 H   0  0  0  0  0  0  0  0  0  0  0  0
   -0.3991   -4.8613    0.0000 H   0  0  0  0  0  0  0  0  0  0  0  0
   -0.3991   -2.9329    0.0000 H   0  0  0  0  0  0  0  0  0  0  0  0
    3.0000    0.0000    0.0000 H   0  0  0  0  0  0  0  0  0  0  0  0
    1.5000    2.5981    0.0000 H   0  0  0  0  0  0  0  0  0  0  0  0
   -1.5000    2.5981    0.0000 H   0  0  0  0  0  0  0  0  0  0  0  0
   -3.7500    1.2990    0.0000 H   0  0  0  0  0  0  0  0  0  0  0  0
   -5.2500   -1.2990    0.0000 H   0  0  0  0  0  0  0  0  0  0  0  0
   -3.7500   -3.8971    0.0000 H   0  0  0  0  0  0  0  0  0  0  0  0
   -0.7500   -3.8971    0.0000 H   0  0  0  0  0  0  0  0  0  0  0  0
    3.0000  -10.3923    0.0000 H   0  0  0  0  0  0  0  0  0  0  0  0
    4.5000  -12.9904    0.0000 H   0  0  0  0  0  0  0  0  0  0  0  0
    7.5000   -7.7942    0.0000 H   0  0  0  0  0  0  0  0  0  0  0  0
    7.4418  -14.2733    0.0000 H   0  0  0  0  0  0  0  0  0  0  0  0
  1  2  1  0
  2  3  1  0
  3  4  1  0
  4  5  1  0
  3  6  1  0
  6  7  1  0
  7  8  1  0
  8  9  1  0
  9 10  2  0
 10 11  1  0
 11 12  2  0
 12 13  1  0
 13 14  2  0
 14 15  1  0
 15 16  2  0
 16 17  1  0
 17 18  2  0
  1 19  1  0
 19 20  2  0
 20 21  1  0
 19 22  1  0
 22 23  2  0
 23 24  1  0
 24 25  1  0
 25 26  1  0
 26 27  2  0
  8  5  1  0
 18  9  1  0
 24 21  2  0
 18 13  1  0
 27 23  1  0
  1 28  1  0
  1 29  1  0
  2 30  1  0
  2 31  1  0
  4 32  1  0
  4 33  1  0
  5 34  1  0
  5 35  1  0
  6 36  1  0
  6 37  1  0
  7 38  1  0
  7 39  1  0
 10 40  1  0
 11 41  1  0
 12 42  1  0
 14 43  1  0
 15 44  1  0
 16 45  1  0
 17 46  1  0
 20 47  1  0
 21 48  1  0
 22 49  1  0
 25 50  1  0
M  END
$$$$
