CHEMBL3105243
     RDKit          2D

 47 49  0  0  0  0  0  0  0  0999 V2000
   -0.8999    4.8253    0.0000 O   0  0  0  0  0  0  0  0  0  0  0  0
   -1.5575    3.4771    0.0000 C   0  0  0  0  0  0  0  0  0  0  0  0
   -0.7187    2.2336    0.0000 C   0  0  0  0  0  0  0  0  0  0  0  0
    0.3943    1.2135    0.0000 C   0  0  0  0  0  0  0  0  0  0  0  0
    1.2760    0.0000    0.0000 C   0  0  0  0  0  0  0  0  0  0  0  0
    0.3943   -1.2135    0.0000 C   0  0  0  0  0  0  0  0  0  0  0  0
   -1.0323    0.7500    0.0000 N   0  0  0  0  0  0  0  0  0  0  0  0
   -2.2458    1.6317    0.0000 C   0  0  0  0  0  0  0  0  0  0  0  0
   -3.4593    2.5134    0.0000 C   0  0  0  0  0  0  0  0  0  0  0  0
   -3.3025    4.0051    0.0000 C   0  0  0  0  0  0  0  0  0  0  0  0
   -4.2667    5.1543    0.0000 I   0  0  0  0  0  0  0  0  0  0  0  0
   -1.0323   -0.7500    0.0000 C   0  0  0  0  0  0  0  0  0  0  0  0
   -2.2458    0.1317    0.0000 C   0  0  0  0  0  0  0  0  0  0  0  0
   -2.0890    1.6235    0.0000 C   0  0  0  0  0  0  0  0  0  0  0  0
   -3.5854    1.5188    0.0000 C   0  0  0  0  0  0  0  0  0  0  0  0
   -4.4242    2.7624    0.0000 C   0  0  0  0  0  0  0  0  0  0  0  0
   -5.9205    2.6577    0.0000 C   0  0  0  0  0  0  0  0  0  0  0  0
   -4.2429    0.1706    0.0000 C   0  0  0  0  0  0  0  0  0  0  0  0
   -5.7393    0.0660    0.0000 C   0  0  0  0  0  0  0  0  0  0  0  0
   -6.5781    1.3096    0.0000 C   0  0  0  0  0  0  0  0  0  0  0  0
   -8.0744    1.2049    0.0000 I   0  0  0  0  0  0  0  0  0  0  0  0
   -3.0538    3.3725    0.0000 O   0  0  0  0  0  0  0  0  0  0  0  0
   -3.8926    4.6160    0.0000 C   0  0  0  0  0  0  0  0  0  0  0  0
   -4.7314    5.8596    0.0000 C   0  0  0  0  0  0  0  0  0  0  0  0
   -5.5702    7.1032    0.0000 F   0  0  0  0  0  0  0  0  0  0  0  0
    0.2252    3.3993    0.0000 H   0  0  0  0  0  0  0  0  0  0  0  0
    1.0283    2.5730    0.0000 H   0  0  0  0  0  0  0  0  0  0  0  0
    2.3907    1.0037    0.0000 H   0  0  0  0  0  0  0  0  0  0  0  0
    2.3907   -1.0037    0.0000 H   0  0  0  0  0  0  0  0  0  0  0  0
    1.6933   -1.9635    0.0000 H   0  0  0  0  0  0  0  0  0  0  0  0
   -0.2158   -2.5838    0.0000 H   0  0  0  0  0  0  0  0  0  0  0  0
   -3.2688    0.5347    0.0000 H   0  0  0  0  0  0  0  0  0  0  0  0
   -1.6840    3.0225    0.0000 H   0  0  0  0  0  0  0  0  0  0  0  0
   -4.8297    1.9033    0.0000 H   0  0  0  0  0  0  0  0  0  0  0  0
   -1.9322    4.6152    0.0000 H   0  0  0  0  0  0  0  0  0  0  0  0
   -2.1293   -1.7730    0.0000 H   0  0  0  0  0  0  0  0  0  0  0  0
   -2.9034   -1.2165    0.0000 H   0  0  0  0  0  0  0  0  0  0  0  0
   -3.7401    0.0008    0.0000 H   0  0  0  0  0  0  0  0  0  0  0  0
   -2.7933    2.9478    0.0000 H   0  0  0  0  0  0  0  0  0  0  0  0
   -4.4767    4.2615    0.0000 H   0  0  0  0  0  0  0  0  0  0  0  0
   -6.7593    3.9013    0.0000 H   0  0  0  0  0  0  0  0  0  0  0  0
   -3.5620   -1.1659    0.0000 H   0  0  0  0  0  0  0  0  0  0  0  0
   -6.3968   -1.2822    0.0000 H   0  0  0  0  0  0  0  0  0  0  0  0
   -2.6491    5.4548    0.0000 H   0  0  0  0  0  0  0  0  0  0  0  0
   -5.1362    3.7773    0.0000 H   0  0  0  0  0  0  0  0  0  0  0  0
   -3.4879    6.6984    0.0000 H   0  0  0  0  0  0  0  0  0  0  0  0
   -5.9750    5.0208    0.0000 H   0  0  0  0  0  0  0  0  0  0  0  0
  1  2  2  0
  2  3  1  0
  3  4  1  0
  4  5  1  0
  5  6  1  0
  4  7  1  0
  7  8  1  0
  8  9  1  0
  9 10  2  3
 10 11  1  0
  7 12  1  0
 12 13  1  0
  3 14  1  0
 14 15  1  0
 15 16  2  0
 16 17  1  0
 15 18  1  0
 18 19  2  0
 19 20  1  0
 20 21  1  0
  2 22  1  0
 22 23  1  0
 23 24  1  0
 24 25  1  0
 12  6  1  0
 14 13  1  0
 20 17  2  0
  3 26  1  0
  4 27  1  0
  5 28  1  0
  5 29  1  0
  6 30  1  0
  6 31  1  0
  8 32  1  0
  8 33  1  0
  9 34  1  0
 10 35  1  0
 12 36  1  0
 13 37  1  0
 13 38  1  0
 14 39  1  0
 16 40  1  0
 17 41  1  0
 18 42  1  0
 19 43  1  0
 23 44  1  0
 23 45  1  0
 24 46  1  0
 24 47  1  0
M  END
$$$$
