CHEMBL270099_44457050
     RDKit          2D

 45 47  0  0  0  0  0  0  0  0999 V2000
   -1.5000    0.0000    0.0000 C   0  0  0  0  0  0  0  0  0  0  0  0
   -0.7500    1.2990    0.0000 O   0  0  0  0  0  0  0  0  0  0  0  0
   -1.5000    2.5981    0.0000 C   0  0  0  0  0  0  0  0  0  0  0  0
   -0.7500    3.8971    0.0000 C   0  0  0  0  0  0  0  0  0  0  0  0
   -1.5000    5.1962    0.0000 C   0  0  0  0  0  0  0  0  0  0  0  0
   -0.7500    6.4952    0.0000 C   0  0  0  0  0  0  0  0  0  0  0  0
    0.7500    6.4952    0.0000 C   0  0  0  0  0  0  0  0  0  0  0  0
    1.5000    5.1962    0.0000 C   0  0  0  0  0  0  0  0  0  0  0  0
    0.7500    3.8971    0.0000 C   0  0  0  0  0  0  0  0  0  0  0  0
    1.5000    2.5981    0.0000 S   0  0  0  0  0  0  0  0  0  0  0  0
    3.0000    2.5981    0.0000 C   0  0  0  0  0  0  0  0  0  0  0  0
    3.0000    4.0981    0.0000 C   0  0  0  0  0  0  0  0  0  0  0  0
    4.4772    3.8376    0.0000 O   0  0  0  0  0  0  0  0  0  0  0  0
    5.4414    4.9867    0.0000 C   0  0  0  0  0  0  0  0  0  0  0  0
    4.9284    6.3962    0.0000 C   0  0  0  0  0  0  0  0  0  0  0  0
    3.4512    6.6567    0.0000 N   0  0  0  0  0  0  0  0  0  0  0  0
    2.4870    5.5076    0.0000 C   0  0  0  0  0  0  0  0  0  0  0  0
    3.0000    1.0981    0.0000 C   0  0  0  0  0  0  0  0  0  0  0  0
    1.7010    0.3481    0.0000 C   0  0  0  0  0  0  0  0  0  0  0  0
    1.7010   -1.1519    0.0000 C   0  0  0  0  0  0  0  0  0  0  0  0
    3.0000   -1.9019    0.0000 C   0  0  0  0  0  0  0  0  0  0  0  0
    4.2990   -1.1519    0.0000 C   0  0  0  0  0  0  0  0  0  0  0  0
    4.2990    0.3481    0.0000 C   0  0  0  0  0  0  0  0  0  0  0  0
   -3.0000    2.5981    0.0000 O   0  0  0  0  0  0  0  0  0  0  0  0
   -2.2500   -1.2990    0.0000 H   0  0  0  0  0  0  0  0  0  0  0  0
   -0.2010   -0.7500    0.0000 H   0  0  0  0  0  0  0  0  0  0  0  0
   -2.7990    0.7500    0.0000 H   0  0  0  0  0  0  0  0  0  0  0  0
   -3.0000    5.1962    0.0000 H   0  0  0  0  0  0  0  0  0  0  0  0
   -1.5000    7.7942    0.0000 H   0  0  0  0  0  0  0  0  0  0  0  0
    1.5000    7.7942    0.0000 H   0  0  0  0  0  0  0  0  0  0  0  0
    2.2735    5.3890    0.0000 H   0  0  0  0  0  0  0  0  0  0  0  0
    4.5000    2.5981    0.0000 H   0  0  0  0  0  0  0  0  0  0  0  0
    1.5037    4.2028    0.0000 H   0  0  0  0  0  0  0  0  0  0  0  0
    6.7404    5.7367    0.0000 H   0  0  0  0  0  0  0  0  0  0  0  0
    6.4056    3.8376    0.0000 H   0  0  0  0  0  0  0  0  0  0  0  0
    4.9284    7.8962    0.0000 H   0  0  0  0  0  0  0  0  0  0  0  0
    6.4056    6.6567    0.0000 H   0  0  0  0  0  0  0  0  0  0  0  0
    2.9381    8.0662    0.0000 H   0  0  0  0  0  0  0  0  0  0  0  0
    1.0451    5.0942    0.0000 H   0  0  0  0  0  0  0  0  0  0  0  0
    1.8295    6.8558    0.0000 H   0  0  0  0  0  0  0  0  0  0  0  0
    0.4019    1.0981    0.0000 H   0  0  0  0  0  0  0  0  0  0  0  0
    0.4019   -1.9019    0.0000 H   0  0  0  0  0  0  0  0  0  0  0  0
    3.0000   -3.4019    0.0000 H   0  0  0  0  0  0  0  0  0  0  0  0
    5.5981   -1.9019    0.0000 H   0  0  0  0  0  0  0  0  0  0  0  0
    5.5981    1.0981    0.0000 H   0  0  0  0  0  0  0  0  0  0  0  0
  1  2  1  0
  2  3  1  0
  3  4  1  0
  4  5  2  0
  5  6  1  0
  6  7  2  0
  7  8  1  0
  4  9  1  0
  9 10  1  0
 10 11  1  0
 11 12  1  0
 12 13  1  0
 13 14  1  0
 14 15  1  0
 15 16  1  0
 16 17  1  0
 11 18  1  0
 18 19  2  0
 19 20  1  0
 20 21  2  0
 21 22  1  0
 22 23  2  0
  3 24  2  0
  9  8  2  0
 17 12  1  0
 23 18  1  0
  1 25  1  0
  1 26  1  0
  1 27  1  0
  5 28  1  0
  6 29  1  0
  7 30  1  0
  8 31  1  0
 11 32  1  0
 12 33  1  0
 14 34  1  0
 14 35  1  0
 15 36  1  0
 15 37  1  0
 16 38  1  0
 17 39  1  0
 17 40  1  0
 19 41  1  0
 20 42  1  0
 21 43  1  0
 22 44  1  0
 23 45  1  0
M  END
$$$$
