CHEMBL1187666
     RDKit          2D

 59 62  0  0  0  0  0  0  0  0999 V2000
    2.7760    0.0000    0.0000 C   0  0  0  0  0  0  0  0  0  0  0  0
    1.2760    0.0000    0.0000 N   0  0  0  0  0  0  0  0  0  0  0  0
    0.3943    1.2135    0.0000 C   0  0  0  0  0  0  0  0  0  0  0  0
   -1.0323    0.7500    0.0000 C   0  0  0  0  0  0  0  0  0  0  0  0
   -1.0323   -0.7500    0.0000 C   0  0  0  0  0  0  0  0  0  0  0  0
    1.8943    1.3846    0.0000 C   0  0  0  0  0  0  0  0  0  0  0  0
    2.6443    0.0855    0.0000 C   0  0  0  0  0  0  0  0  0  0  0  0
    3.7934   -0.8787    0.0000 C   0  0  0  0  0  0  0  0  0  0  0  0
    3.5329   -2.3559    0.0000 C   0  0  0  0  0  0  0  0  0  0  0  0
    4.6820   -3.3201    0.0000 C   0  0  0  0  0  0  0  0  0  0  0  0
    5.2029   -0.3656    0.0000 C   0  0  0  0  0  0  0  0  0  0  0  0
    6.3520   -1.3298    0.0000 C   0  0  0  0  0  0  0  0  0  0  0  0
    6.0915   -2.8070    0.0000 C   0  0  0  0  0  0  0  0  0  0  0  0
    7.2406   -3.7712    0.0000 O   0  0  0  0  0  0  0  0  0  0  0  0
    6.9801   -5.2484    0.0000 C   0  0  0  0  0  0  0  0  0  0  0  0
    0.3943   -1.2135    0.0000 C   0  0  0  0  0  0  0  0  0  0  0  0
    1.8943   -1.2135    0.0000 C   0  0  0  0  0  0  0  0  0  0  0  0
    1.6338   -2.6907    0.0000 C   0  0  0  0  0  0  0  0  0  0  0  0
    2.7829   -3.6549    0.0000 O   0  0  0  0  0  0  0  0  0  0  0  0
    2.5224   -5.1321    0.0000 C   0  0  0  0  0  0  0  0  0  0  0  0
    2.2619   -6.6093    0.0000 C   0  0  0  0  0  0  0  0  0  0  0  0
    2.0015   -8.0866    0.0000 C   0  0  0  0  0  0  0  0  0  0  0  0
    0.5919   -8.5996    0.0000 C   0  0  0  0  0  0  0  0  0  0  0  0
    0.3315  -10.0768    0.0000 C   0  0  0  0  0  0  0  0  0  0  0  0
    3.1505   -9.0507    0.0000 C   0  0  0  0  0  0  0  0  0  0  0  0
    2.8901  -10.5279    0.0000 C   0  0  0  0  0  0  0  0  0  0  0  0
    4.0391  -11.4921    0.0000 Br  0  0  0  0  0  0  0  0  0  0  0  0
    1.4805  -11.0410    0.0000 C   0  0  0  0  0  0  0  0  0  0  0  0
    1.2201  -12.5182    0.0000 N   0  0  0  0  0  0  0  0  0  0  0  0
    0.2973   -3.3718    0.0000 O   0  0  0  0  0  0  0  0  0  0  0  0
    4.2760    0.0000    0.0000 H   0  0  0  0  0  0  0  0  0  0  0  0
    2.9588    1.4888    0.0000 H   0  0  0  0  0  0  0  0  0  0  0  0
    2.9588   -1.4888    0.0000 H   0  0  0  0  0  0  0  0  0  0  0  0
    0.6805    2.6860    0.0000 H   0  0  0  0  0  0  0  0  0  0  0  0
   -2.5241    0.5932    0.0000 H   0  0  0  0  0  0  0  0  0  0  0  0
   -1.3442    2.2172    0.0000 H   0  0  0  0  0  0  0  0  0  0  0  0
   -1.3442   -2.2172    0.0000 H   0  0  0  0  0  0  0  0  0  0  0  0
   -2.5241   -0.5932    0.0000 H   0  0  0  0  0  0  0  0  0  0  0  0
    3.2308    2.0656    0.0000 H   0  0  0  0  0  0  0  0  0  0  0  0
    1.8158    2.8825    0.0000 H   0  0  0  0  0  0  0  0  0  0  0  0
    3.7934    1.0497    0.0000 H   0  0  0  0  0  0  0  0  0  0  0  0
    2.2894   -3.1947    0.0000 H   0  0  0  0  0  0  0  0  0  0  0  0
    4.6035   -4.8180    0.0000 H   0  0  0  0  0  0  0  0  0  0  0  0
    5.4634    1.1116    0.0000 H   0  0  0  0  0  0  0  0  0  0  0  0
    7.7615   -0.8168    0.0000 H   0  0  0  0  0  0  0  0  0  0  0  0
    6.7196   -6.7256    0.0000 H   0  0  0  0  0  0  0  0  0  0  0  0
    8.4573   -5.5089    0.0000 H   0  0  0  0  0  0  0  0  0  0  0  0
    5.5029   -4.9880    0.0000 H   0  0  0  0  0  0  0  0  0  0  0  0
    0.3157   -2.7115    0.0000 H   0  0  0  0  0  0  0  0  0  0  0  0
    3.0263   -2.1977    0.0000 H   0  0  0  0  0  0  0  0  0  0  0  0
    1.0452   -4.8717    0.0000 H   0  0  0  0  0  0  0  0  0  0  0  0
    3.9569   -5.5707    0.0000 H   0  0  0  0  0  0  0  0  0  0  0  0
    3.7392   -6.8698    0.0000 H   0  0  0  0  0  0  0  0  0  0  0  0
    0.7847   -6.3489    0.0000 H   0  0  0  0  0  0  0  0  0  0  0  0
   -0.5571   -7.6354    0.0000 H   0  0  0  0  0  0  0  0  0  0  0  0
   -1.0781  -10.5898    0.0000 H   0  0  0  0  0  0  0  0  0  0  0  0
    4.5601   -8.5377    0.0000 H   0  0  0  0  0  0  0  0  0  0  0  0
   -0.1895  -13.0312    0.0000 H   0  0  0  0  0  0  0  0  0  0  0  0
    2.3691  -13.4824    0.0000 H   0  0  0  0  0  0  0  0  0  0  0  0
  1  2  1  0
  2  3  1  0
  3  4  1  0
  4  5  1  0
  3  6  1  0
  6  7  1  0
  7  8  1  0
  8  9  2  0
  9 10  1  0
  8 11  1  0
 11 12  2  0
 12 13  1  0
 13 14  1  0
 14 15  1  0
  2 16  1  0
 16 17  1  0
 17 18  1  0
 18 19  1  0
 19 20  1  0
 20 21  1  0
 21 22  1  0
 22 23  2  0
 23 24  1  0
 22 25  1  0
 25 26  2  0
 26 27  1  0
 26 28  1  0
 28 29  1  0
 18 30  2  0
 16  5  1  0
 28 24  2  0
 17  7  1  0
 13 10  2  0
  1 31  1  0
  1 32  1  0
  1 33  1  0
  3 34  1  0
  4 35  1  0
  4 36  1  0
  5 37  1  0
  5 38  1  0
  6 39  1  0
  6 40  1  0
  7 41  1  0
  9 42  1  0
 10 43  1  0
 11 44  1  0
 12 45  1  0
 15 46  1  0
 15 47  1  0
 15 48  1  0
 16 49  1  0
 17 50  1  0
 20 51  1  0
 20 52  1  0
 21 53  1  0
 21 54  1  0
 23 55  1  0
 24 56  1  0
 25 57  1  0
 29 58  1  0
 29 59  1  0
M  END
$$$$
