CHEMBL498687_CHEMBL522065_44587473
     RDKit          2D

 45 47  0  0  0  0  0  0  0  0999 V2000
    6.1277   -1.8739    0.0000 C   0  0  0  0  0  0  0  0  0  0  0  0
    4.9786   -2.8381    0.0000 C   0  0  0  0  0  0  0  0  0  0  0  0
    3.8296   -3.8023    0.0000 C   0  0  0  0  0  0  0  0  0  0  0  0
    4.0900   -5.2795    0.0000 C   0  0  0  0  0  0  0  0  0  0  0  0
    2.9410   -6.2437    0.0000 C   0  0  0  0  0  0  0  0  0  0  0  0
    1.5314   -5.7307    0.0000 C   0  0  0  0  0  0  0  0  0  0  0  0
    1.2709   -4.2535    0.0000 C   0  0  0  0  0  0  0  0  0  0  0  0
    2.4200   -3.2893    0.0000 C   0  0  0  0  0  0  0  0  0  0  0  0
    2.1595   -1.8121    0.0000 O   0  0  0  0  0  0  0  0  0  0  0  0
    0.7500   -1.2990    0.0000 C   0  0  0  0  0  0  0  0  0  0  0  0
    1.5000    0.0000    0.0000 C   0  0  0  0  0  0  0  0  0  0  0  0
    2.6491    0.9642    0.0000 C   0  0  0  0  0  0  0  0  0  0  0  0
    3.7981    1.9284    0.0000 N   0  0  0  0  0  0  0  0  0  0  0  0
    3.5377    3.4056    0.0000 C   0  0  0  0  0  0  0  0  0  0  0  0
    0.7500    1.2990    0.0000 O   0  0  0  0  0  0  0  0  0  0  0  0
   -0.7500    1.2990    0.0000 C   0  0  0  0  0  0  0  0  0  0  0  0
   -0.7500   -1.2990    0.0000 C   0  0  0  0  0  0  0  0  0  0  0  0
   -1.5000    0.0000    0.0000 C   0  0  0  0  0  0  0  0  0  0  0  0
   -3.0000    0.0000    0.0000 C   0  0  0  0  0  0  0  0  0  0  0  0
   -3.7500   -1.2990    0.0000 C   0  0  0  0  0  0  0  0  0  0  0  0
   -3.0000   -2.5981    0.0000 C   0  0  0  0  0  0  0  0  0  0  0  0
   -1.5000   -2.5981    0.0000 C   0  0  0  0  0  0  0  0  0  0  0  0
    7.2768   -0.9098    0.0000 H   0  0  0  0  0  0  0  0  0  0  0  0
    7.0919   -3.0230    0.0000 H   0  0  0  0  0  0  0  0  0  0  0  0
    5.1635   -0.7249    0.0000 H   0  0  0  0  0  0  0  0  0  0  0  0
    5.9428   -3.9872    0.0000 H   0  0  0  0  0  0  0  0  0  0  0  0
    4.0144   -1.6891    0.0000 H   0  0  0  0  0  0  0  0  0  0  0  0
    5.4996   -5.7926    0.0000 H   0  0  0  0  0  0  0  0  0  0  0  0
    3.2014   -7.7209    0.0000 H   0  0  0  0  0  0  0  0  0  0  0  0
    0.3824   -6.6949    0.0000 H   0  0  0  0  0  0  0  0  0  0  0  0
   -0.0445   -3.9498    0.0000 H   0  0  0  0  0  0  0  0  0  0  0  0
    0.4895   -2.7762    0.0000 H   0  0  0  0  0  0  0  0  0  0  0  0
    2.6491   -0.9642    0.0000 H   0  0  0  0  0  0  0  0  0  0  0  0
    3.6132   -0.1849    0.0000 H   0  0  0  0  0  0  0  0  0  0  0  0
    1.6849    2.1132    0.0000 H   0  0  0  0  0  0  0  0  0  0  0  0
    5.2077    1.4153    0.0000 H   0  0  0  0  0  0  0  0  0  0  0  0
    3.2772    4.8828    0.0000 H   0  0  0  0  0  0  0  0  0  0  0  0
    5.0149    3.6660    0.0000 H   0  0  0  0  0  0  0  0  0  0  0  0
    2.0604    3.1451    0.0000 H   0  0  0  0  0  0  0  0  0  0  0  0
   -2.1595    1.8121    0.0000 H   0  0  0  0  0  0  0  0  0  0  0  0
   -0.4895    2.7762    0.0000 H   0  0  0  0  0  0  0  0  0  0  0  0
   -3.7500    1.2990    0.0000 H   0  0  0  0  0  0  0  0  0  0  0  0
   -5.2500   -1.2990    0.0000 H   0  0  0  0  0  0  0  0  0  0  0  0
   -3.7500   -3.8971    0.0000 H   0  0  0  0  0  0  0  0  0  0  0  0
   -0.9725   -3.8408    0.0000 H   0  0  0  0  0  0  0  0  0  0  0  0
  1  2  1  0
  2  3  1  0
  3  4  2  0
  4  5  1  0
  5  6  2  0
  6  7  1  0
  3  8  1  0
  8  9  1  0
  9 10  1  0
 10 11  1  0
 11 12  1  0
 12 13  1  0
 13 14  1  0
 11 15  1  0
 15 16  1  0
 10 17  1  0
 17 18  2  0
 18 19  1  0
 19 20  2  0
 20 21  1  0
 21 22  2  0
  8  7  2  0
 18 16  1  0
 22 17  1  0
  1 23  1  0
  1 24  1  0
  1 25  1  0
  2 26  1  0
  2 27  1  0
  4 28  1  0
  5 29  1  0
  6 30  1  0
  7 31  1  0
 10 32  1  0
 11 33  1  0
 12 34  1  0
 12 35  1  0
 13 36  1  0
 14 37  1  0
 14 38  1  0
 14 39  1  0
 16 40  1  0
 16 41  1  0
 19 42  1  0
 20 43  1  0
 21 44  1  0
 22 45  1  0
M  END
$$$$
